REMARK  13 active torsions:
REMARK  status: ('A' for Active; 'I' for Inactive)
REMARK    1  A    between atoms: O1_1  and  C1_2 
REMARK    2  A    between atoms: C2_3  and  O2_4 
REMARK    3  A    between atoms: C3_5  and  O3_6 
REMARK    4  A    between atoms: O3_6  and  C4_7 
REMARK    5  A    between atoms: C4_7  and  C5_8 
REMARK    6  A    between atoms: C6_9  and  C8_11 
REMARK    7  A    between atoms: C9_12  and  C10_13 
REMARK    8  A    between atoms: C10_13  and  C11_14 
REMARK    9  A    between atoms: C11_14  and  C13_16 
REMARK   10  A    between atoms: C13_16  and  C14_17 
REMARK   11  A    between atoms: C14_17  and  C15_18 
REMARK   12  A    between atoms: C24_28  and  C25_29 
REMARK   13  A    between atoms: C26_32  and  O7_33 
ROOT
ATOM      1  C5  non d   1       2.762  -0.708  -1.819  0.00  0.00     0.006 C 
ATOM      2  C6  non d   1       1.522  -0.637  -1.619  0.00  0.00    -0.064 C 
ATOM      3  C7  non d   1       0.650   0.096  -2.610  0.00  0.00     0.048 C 
ENDROOT
BRANCH   1   4
ATOM      4  C4  non d   1       3.659  -1.416  -0.832  0.00  0.00     0.199 C 
BRANCH   4   5
ATOM      5  O3  non d   1       4.562  -0.385  -0.445  0.00  0.00    -0.355 OA
BRANCH   5   6
ATOM      6  C3  non d   1       5.477  -0.736   0.525  0.00  0.00     0.292 C 
ATOM      7  C2  non d   1       6.876  -0.863  -0.081  0.00  0.00     0.204 C 
ATOM      8  C1  non d   1       9.831  -9.728   1.094  0.00  0.00     0.183 C 
ATOM      9  C26 non d   1       7.740   0.745   1.458  0.00  0.00     0.189 C 
ATOM     10  C24 non d   1       6.307   1.164   1.637  0.00  0.00     0.256 C 
ATOM     11  O4  non d   1       5.409   0.125   1.598  0.00  0.00    -0.340 OA
BRANCH   7  12
ATOM     12  O2  non d   1       7.044  -2.128  -0.603  0.00  0.00    -0.388 OA
ATOM     13  H4  non d   1       7.128  -2.761   0.114  0.00  0.00     0.210 HD
ENDBRANCH   7  12
BRANCH   8  14
ATOM     14  O1  non d   1       9.133  -1.040   0.762  0.00  0.00    -0.390 OA
ATOM     15  H1  non d   1       9.647  -1.163   1.563  0.00  0.00     0.210 HD
ENDBRANCH   8  14
BRANCH   9  16
ATOM     16  O7  non d   1       8.523   0.958   2.586  0.00  0.00    -0.390 OA
ATOM     17  H37 non d   1       8.783   0.113   2.959  0.00  0.00     0.210 HD
ENDBRANCH   9  16
BRANCH  10  18
ATOM     18  C25 non d   1       5.940   2.220   0.676  0.00  0.00     0.206 C 
ATOM     19  O5  non d   1       6.802   3.324   0.521  0.00  0.00    -0.646 OA
ATOM     20  O6  non d   1       4.915   2.239  -0.040  0.00  0.00    -0.646 OA
ENDBRANCH  10  18
ENDBRANCH   5   6
ENDBRANCH   4   5
ENDBRANCH   1   4
BRANCH   2  21
ATOM     21  C8  non d   1       0.835  -1.400  -0.590  0.00  0.00     0.006 C 
ATOM     22  C9  non d   1      -0.392  -1.230  -0.407  0.00  0.00     0.001 C 
BRANCH  22  23
ATOM     23  C10 non d   1      -1.074  -2.066   0.695  0.00  0.00     0.007 C 
BRANCH  23  24
ATOM     24  C11 non d   1      -2.205  -1.639   0.651  0.00  0.00    -0.062 C 
ATOM     25  C12 non d   1      -2.688  -2.833   2.042  0.00  0.00     0.048 C 
BRANCH  24  26
ATOM     26  C13 non d   1      -3.478  -1.157   0.602  0.00  0.00     0.007 C 
BRANCH  26  27
ATOM     27  C14 non d   1      -3.717  -0.063  -0.174  0.00  0.00     0.009 C 
BRANCH  27  28
ATOM     28  C15 non d   1      -4.960   0.597  -0.377  0.00  0.00    -0.048 C 
ATOM     29  C16 non d   1      -4.910   1.712  -1.160  0.00  0.00    -0.077 C 
ATOM     30  C17 non d   1      -3.565   2.098  -1.716  0.00  0.00     0.044 C 
ATOM     31  C18 non d   1      -6.045   2.603  -1.407  0.00  0.00     0.034 C 
ATOM     32  C19 non d   1      -7.350   2.087  -0.953  0.00  0.00     0.005 C 
ATOM     33  C20 non d   1      -7.372   0.613  -0.888  0.00  0.00     0.014 C 
ATOM     34  C21 non d   1      -6.274   0.160   0.115  0.00  0.00    -0.020 C 
ATOM     35  C22 non d   1      -6.498   0.821   1.468  0.00  0.00     0.020 C 
ATOM     36  C23 non d   1      -6.497  -1.302   0.263  0.00  0.00     0.020 C 
ENDBRANCH  27  28
ENDBRANCH  26  27
ENDBRANCH  24  26
ENDBRANCH  23  24
ENDBRANCH  22  23
ENDBRANCH   2  21
TORSDOF 13
